9
Properties=species:S:1:pos:R:3:momenta:R:3:forces:R:3 pbc="F F F"
C       -4.53258697       1.08447292       0.22829956       0.14398691       0.05941616      -0.87490294      -0.00001564       0.00001675       0.00003637
C       -3.46871375       1.96583281      -0.38611434       0.02313788      -0.18985694       0.88450668       0.00000442       0.00004240      -0.00003159
H       -5.35016868       1.69180442       0.63709326       0.00835609      -0.01229481      -0.06578887       0.00001577      -0.00001490      -0.00002158
H       -4.12681102       0.48182898       1.05570370       0.18283741       0.13760127       0.11494274      -0.00000247      -0.00001356       0.00000120
H       -4.97138587       0.40417630      -0.51808047       0.11863686      -0.17656544       0.15106163      -0.00000521       0.00000042      -0.00000284
H       -3.06161925       2.66290964       0.36693393      -0.00546543       0.24258309       0.15544187      -0.00000119      -0.00001081       0.00000010
H       -3.89827335       2.58598832      -1.19209852       0.07489328       0.19553337       0.06787608       0.00000009      -0.00001898       0.00001661
O       -2.35390027       1.25415112      -0.94926558      -0.58611666      -0.31464445      -0.32755913       0.00001054       0.00001314      -0.00000292
H       -2.53711881       0.30755666      -0.80423714       0.03973365       0.05822776      -0.10557805      -0.00000631      -0.00001445       0.00000465
